# charges by PACMAN v1.3 (https://github.com/mtap-research/PACMAN-charge/)
data_Cu-BTC
_audit_creation_date                    2024-09-24
_audit_creation_method                  'Materials Studio'
_symmetry_space_group_name_H-M          P1
_symmetry_Int_Tables_number             1
_symmetry_cell_setting                  triclinic
loop_
  _symmetry_equiv_pos_as_xyz
         'x,y,z' 
_cell_length_a                          26.3430
_cell_length_b                          26.3430
_cell_length_c                          26.3430
_cell_angle_alpha                       90.0000
_cell_angle_beta                        90.0000
_cell_angle_gamma                       90.0000
loop_
  _atom_site_label
  _atom_site_type_symbol
  _atom_site_fract_x
  _atom_site_fract_y
  _atom_site_fract_z
  _atom_site_U_iso_or_equiv
  _atom_site_adp_type
  _atom_site_occupancy
  _atom_site_charge
         Cu1       Cu        0.28530   0.28530   0.00000   0.00000   Uiso      1.00     0.8595216824       
         Cu2       Cu        0.71470   0.71470   0.00000   0.00000   Uiso      1.00     0.8595216824       
         Cu3       Cu        0.71470   0.28530   0.00000   0.00000   Uiso      1.00     0.8595216824       
         Cu4       Cu        0.28530   0.71470   0.00000   0.00000   Uiso      1.00     0.8595216824       
         Cu5       Cu        0.00000   0.28530   0.28530   0.00000   Uiso      1.00     0.8595216824       
         Cu6       Cu        0.00000   0.71470   0.71470   0.00000   Uiso      1.00     0.8595216824       
         Cu7       Cu        0.00000   0.71470   0.28530   0.00000   Uiso      1.00     0.8595216824       
         Cu8       Cu        0.00000   0.28530   0.71470   0.00000   Uiso      1.00     0.8595216824       
         Cu9       Cu        0.28530   0.00000   0.28530   0.00000   Uiso      1.00     0.8595216824       
         Cu10      Cu        0.71470   0.00000   0.71470   0.00000   Uiso      1.00     0.8595216824       
         Cu11      Cu        0.28530   0.00000   0.71470   0.00000   Uiso      1.00     0.8595216824       
         Cu12      Cu        0.71470   0.00000   0.28530   0.00000   Uiso      1.00     0.8595216824       
         Cu13      Cu        0.28530   0.78530   0.50000   0.00000   Uiso      1.00     0.8595216824       
         Cu14      Cu        0.71470   0.21470   0.50000   0.00000   Uiso      1.00     0.8595216824       
         Cu15      Cu        0.71470   0.78530   0.50000   0.00000   Uiso      1.00     0.8595216824       
         Cu16      Cu        0.28530   0.21470   0.50000   0.00000   Uiso      1.00     0.8595216824       
         Cu17      Cu        0.00000   0.78530   0.78530   0.00000   Uiso      1.00     0.8595216824       
         Cu18      Cu        0.00000   0.21470   0.21470   0.00000   Uiso      1.00     0.8595216824       
         Cu19      Cu        0.00000   0.21470   0.78530   0.00000   Uiso      1.00     0.8595216824       
         Cu20      Cu        0.00000   0.78530   0.21470   0.00000   Uiso      1.00     0.8595216824       
         Cu21      Cu        0.28530   0.50000   0.78530   0.00000   Uiso      1.00     0.8595216824       
         Cu22      Cu        0.71470   0.50000   0.21470   0.00000   Uiso      1.00     0.8595216824       
         Cu23      Cu        0.28530   0.50000   0.21470   0.00000   Uiso      1.00     0.8595216824       
         Cu24      Cu        0.71470   0.50000   0.78530   0.00000   Uiso      1.00     0.8595216824       
         Cu25      Cu        0.78530   0.28530   0.50000   0.00000   Uiso      1.00     0.8595216824       
         Cu26      Cu        0.21470   0.71470   0.50000   0.00000   Uiso      1.00     0.8595216824       
         Cu27      Cu        0.21470   0.28530   0.50000   0.00000   Uiso      1.00     0.8595216824       
         Cu28      Cu        0.78530   0.71470   0.50000   0.00000   Uiso      1.00     0.8595216824       
         Cu29      Cu        0.50000   0.28530   0.78530   0.00000   Uiso      1.00     0.8595216824       
         Cu30      Cu        0.50000   0.71470   0.21470   0.00000   Uiso      1.00     0.8595216824       
         Cu31      Cu        0.50000   0.71470   0.78530   0.00000   Uiso      1.00     0.8595216824       
         Cu32      Cu        0.50000   0.28530   0.21470   0.00000   Uiso      1.00     0.8595216824       
         Cu33      Cu        0.78530   0.00000   0.78530   0.00000   Uiso      1.00     0.8595216824       
         Cu34      Cu        0.21470   0.00000   0.21470   0.00000   Uiso      1.00     0.8595216824       
         Cu35      Cu        0.78530   0.00000   0.21470   0.00000   Uiso      1.00     0.8595216824       
         Cu36      Cu        0.21470   0.00000   0.78530   0.00000   Uiso      1.00     0.8595216824       
         Cu37      Cu        0.78530   0.78530   0.00000   0.00000   Uiso      1.00     0.8595216824       
         Cu38      Cu        0.21470   0.21470   0.00000   0.00000   Uiso      1.00     0.8595216824       
         Cu39      Cu        0.21470   0.78530   0.00000   0.00000   Uiso      1.00     0.8595216824       
         Cu40      Cu        0.78530   0.21470   0.00000   0.00000   Uiso      1.00     0.8595216824       
         Cu41      Cu        0.50000   0.78530   0.28530   0.00000   Uiso      1.00     0.8595216824       
         Cu42      Cu        0.50000   0.21470   0.71470   0.00000   Uiso      1.00     0.8595216824       
         Cu43      Cu        0.50000   0.21470   0.28530   0.00000   Uiso      1.00     0.8595216824       
         Cu44      Cu        0.50000   0.78530   0.71470   0.00000   Uiso      1.00     0.8595216824       
         Cu45      Cu        0.78530   0.50000   0.28530   0.00000   Uiso      1.00     0.8595216824       
         Cu46      Cu        0.21470   0.50000   0.71470   0.00000   Uiso      1.00     0.8595216824       
         Cu47      Cu        0.78530   0.50000   0.71470   0.00000   Uiso      1.00     0.8595216824       
         Cu48      Cu        0.21470   0.50000   0.28530   0.00000   Uiso      1.00     0.8595216824       
         H1        H         0.38020   0.22800   0.88020   0.00000   Uiso      1.00     0.1363411009       
         H2        H         0.61980   0.77200   0.88020   0.00000   Uiso      1.00     0.1363411009       
         H3        H         0.61980   0.22800   0.11980   0.00000   Uiso      1.00     0.1363411009       
         H4        H         0.38020   0.77200   0.11980   0.00000   Uiso      1.00     0.1363411009       
         H5        H         0.88020   0.38020   0.22800   0.00000   Uiso      1.00     0.1363411009       
         H6        H         0.88020   0.61980   0.77200   0.00000   Uiso      1.00     0.1363411009       
         H7        H         0.11980   0.61980   0.22800   0.00000   Uiso      1.00     0.1363411009       
         H8        H         0.11980   0.38020   0.77200   0.00000   Uiso      1.00     0.1363411009       
         H9        H         0.22800   0.88020   0.38020   0.00000   Uiso      1.00     0.1363411009       
         H10       H         0.77200   0.88020   0.61980   0.00000   Uiso      1.00     0.1363411009       
         H11       H         0.22800   0.11980   0.61980   0.00000   Uiso      1.00     0.1363411009       
         H12       H         0.77200   0.11980   0.38020   0.00000   Uiso      1.00     0.1363411009       
         H13       H         0.22800   0.38020   0.11980   0.00000   Uiso      1.00     0.1363411009       
         H14       H         0.77200   0.61980   0.11980   0.00000   Uiso      1.00     0.1363411009       
         H15       H         0.22800   0.61980   0.88020   0.00000   Uiso      1.00     0.1363411009       
         H16       H         0.77200   0.38020   0.88020   0.00000   Uiso      1.00     0.1363411009       
         H17       H         0.38020   0.88020   0.77200   0.00000   Uiso      1.00     0.1363411009       
         H18       H         0.61980   0.88020   0.22800   0.00000   Uiso      1.00     0.1363411009       
         H19       H         0.61980   0.11980   0.77200   0.00000   Uiso      1.00     0.1363411009       
         H20       H         0.38020   0.11980   0.22800   0.00000   Uiso      1.00     0.1363411009       
         H21       H         0.88020   0.22800   0.61980   0.00000   Uiso      1.00     0.1363411009       
         H22       H         0.88020   0.77200   0.38020   0.00000   Uiso      1.00     0.1363411009       
         H23       H         0.11980   0.22800   0.38020   0.00000   Uiso      1.00     0.1363411009       
         H24       H         0.11980   0.77200   0.61980   0.00000   Uiso      1.00     0.1363411009       
         H25       H         0.61980   0.77200   0.11980   0.00000   Uiso      1.00     0.1363411009       
         H26       H         0.38020   0.22800   0.11980   0.00000   Uiso      1.00     0.1363411009       
         H27       H         0.38020   0.77200   0.88020   0.00000   Uiso      1.00     0.1363411009       
         H28       H         0.61980   0.22800   0.88020   0.00000   Uiso      1.00     0.1363411009       
         H29       H         0.11980   0.61980   0.77200   0.00000   Uiso      1.00     0.1363411009       
         H30       H         0.11980   0.38020   0.22800   0.00000   Uiso      1.00     0.1363411009       
         H31       H         0.88020   0.38020   0.77200   0.00000   Uiso      1.00     0.1363411009       
         H32       H         0.88020   0.61980   0.22800   0.00000   Uiso      1.00     0.1363411009       
         H33       H         0.77200   0.11980   0.61980   0.00000   Uiso      1.00     0.1363411009       
         H34       H         0.22800   0.11980   0.38020   0.00000   Uiso      1.00     0.1363411009       
         H35       H         0.77200   0.88020   0.38020   0.00000   Uiso      1.00     0.1363411009       
         H36       H         0.22800   0.88020   0.61980   0.00000   Uiso      1.00     0.1363411009       
         H37       H         0.77200   0.61980   0.88020   0.00000   Uiso      1.00     0.1363411009       
         H38       H         0.22800   0.38020   0.88020   0.00000   Uiso      1.00     0.1363411009       
         H39       H         0.77200   0.38020   0.11980   0.00000   Uiso      1.00     0.1363411009       
         H40       H         0.22800   0.61980   0.11980   0.00000   Uiso      1.00     0.1363411009       
         H41       H         0.61980   0.11980   0.22800   0.00000   Uiso      1.00     0.1363411009       
         H42       H         0.38020   0.11980   0.77200   0.00000   Uiso      1.00     0.1363411009       
         H43       H         0.38020   0.88020   0.22800   0.00000   Uiso      1.00     0.1363411009       
         H44       H         0.61980   0.88020   0.77200   0.00000   Uiso      1.00     0.1363411009       
         H45       H         0.11980   0.77200   0.38020   0.00000   Uiso      1.00     0.1363411009       
         H46       H         0.11980   0.22800   0.61980   0.00000   Uiso      1.00     0.1363411009       
         H47       H         0.88020   0.77200   0.61980   0.00000   Uiso      1.00     0.1363411009       
         H48       H         0.88020   0.22800   0.38020   0.00000   Uiso      1.00     0.1363411009       
         H49       H         0.38020   0.72800   0.38020   0.00000   Uiso      1.00     0.1363411009       
         H50       H         0.61980   0.27200   0.38020   0.00000   Uiso      1.00     0.1363411009       
         H51       H         0.61980   0.72800   0.61980   0.00000   Uiso      1.00     0.1363411009       
         H52       H         0.38020   0.27200   0.61980   0.00000   Uiso      1.00     0.1363411009       
         H53       H         0.88020   0.88020   0.72800   0.00000   Uiso      1.00     0.1363411009       
         H54       H         0.88020   0.11980   0.27200   0.00000   Uiso      1.00     0.1363411009       
         H55       H         0.11980   0.11980   0.72800   0.00000   Uiso      1.00     0.1363411009       
         H56       H         0.11980   0.88020   0.27200   0.00000   Uiso      1.00     0.1363411009       
         H57       H         0.38020   0.38020   0.27200   0.00000   Uiso      1.00     0.1363411009       
         H58       H         0.61980   0.38020   0.72800   0.00000   Uiso      1.00     0.1363411009       
         H59       H         0.61980   0.61980   0.27200   0.00000   Uiso      1.00     0.1363411009       
         H60       H         0.38020   0.61980   0.72800   0.00000   Uiso      1.00     0.1363411009       
         H61       H         0.88020   0.72800   0.11980   0.00000   Uiso      1.00     0.1363411009       
         H62       H         0.88020   0.27200   0.88020   0.00000   Uiso      1.00     0.1363411009       
         H63       H         0.11980   0.72800   0.88020   0.00000   Uiso      1.00     0.1363411009       
         H64       H         0.11980   0.27200   0.11980   0.00000   Uiso      1.00     0.1363411009       
         H65       H         0.61980   0.27200   0.61980   0.00000   Uiso      1.00     0.1363411009       
         H66       H         0.38020   0.72800   0.61980   0.00000   Uiso      1.00     0.1363411009       
         H67       H         0.38020   0.27200   0.38020   0.00000   Uiso      1.00     0.1363411009       
         H68       H         0.61980   0.72800   0.38020   0.00000   Uiso      1.00     0.1363411009       
         H69       H         0.11980   0.11980   0.27200   0.00000   Uiso      1.00     0.1363411009       
         H70       H         0.11980   0.88020   0.72800   0.00000   Uiso      1.00     0.1363411009       
         H71       H         0.88020   0.88020   0.27200   0.00000   Uiso      1.00     0.1363411009       
         H72       H         0.88020   0.11980   0.72800   0.00000   Uiso      1.00     0.1363411009       
         H73       H         0.61980   0.61980   0.72800   0.00000   Uiso      1.00     0.1363411009       
         H74       H         0.38020   0.61980   0.27200   0.00000   Uiso      1.00     0.1363411009       
         H75       H         0.38020   0.38020   0.72800   0.00000   Uiso      1.00     0.1363411009       
         H76       H         0.61980   0.38020   0.27200   0.00000   Uiso      1.00     0.1363411009       
         H77       H         0.11980   0.27200   0.88020   0.00000   Uiso      1.00     0.1363411009       
         H78       H         0.11980   0.72800   0.11980   0.00000   Uiso      1.00     0.1363411009       
         H79       H         0.88020   0.27200   0.11980   0.00000   Uiso      1.00     0.1363411009       
         H80       H         0.88020   0.72800   0.88020   0.00000   Uiso      1.00     0.1363411009       
         H81       H         0.72800   0.88020   0.88020   0.00000   Uiso      1.00     0.1363411009       
         H82       H         0.27200   0.88020   0.11980   0.00000   Uiso      1.00     0.1363411009       
         H83       H         0.72800   0.11980   0.11980   0.00000   Uiso      1.00     0.1363411009       
         H84       H         0.27200   0.11980   0.88020   0.00000   Uiso      1.00     0.1363411009       
         H85       H         0.72800   0.38020   0.61980   0.00000   Uiso      1.00     0.1363411009       
         H86       H         0.27200   0.61980   0.61980   0.00000   Uiso      1.00     0.1363411009       
         H87       H         0.72800   0.61980   0.38020   0.00000   Uiso      1.00     0.1363411009       
         H88       H         0.27200   0.38020   0.38020   0.00000   Uiso      1.00     0.1363411009       
         H89       H         0.27200   0.11980   0.11980   0.00000   Uiso      1.00     0.1363411009       
         H90       H         0.72800   0.11980   0.88020   0.00000   Uiso      1.00     0.1363411009       
         H91       H         0.27200   0.88020   0.88020   0.00000   Uiso      1.00     0.1363411009       
         H92       H         0.72800   0.88020   0.11980   0.00000   Uiso      1.00     0.1363411009       
         H93       H         0.27200   0.61980   0.38020   0.00000   Uiso      1.00     0.1363411009       
         H94       H         0.72800   0.38020   0.38020   0.00000   Uiso      1.00     0.1363411009       
         H95       H         0.27200   0.38020   0.61980   0.00000   Uiso      1.00     0.1363411009       
         H96       H         0.72800   0.61980   0.61980   0.00000   Uiso      1.00     0.1363411009       
         C1        C         0.29680   0.20320   0.93130   0.00000   Uiso      1.00     0.5823949014       
         C2        C         0.70320   0.79680   0.93130   0.00000   Uiso      1.00     0.5823949014       
         C3        C         0.70320   0.20320   0.06870   0.00000   Uiso      1.00     0.5823949014       
         C4        C         0.29680   0.79680   0.06870   0.00000   Uiso      1.00     0.5823949014       
         C5        C         0.93130   0.29680   0.20320   0.00000   Uiso      1.00     0.5823949014       
         C6        C         0.93130   0.70320   0.79680   0.00000   Uiso      1.00     0.5823949014       
         C7        C         0.06870   0.70320   0.20320   0.00000   Uiso      1.00     0.5823949014       
         C8        C         0.06870   0.29680   0.79680   0.00000   Uiso      1.00     0.5823949014       
         C9        C         0.20320   0.93130   0.29680   0.00000   Uiso      1.00     0.5823949014       
         C10       C         0.79680   0.93130   0.70320   0.00000   Uiso      1.00     0.5823949014       
         C11       C         0.20320   0.06870   0.70320   0.00000   Uiso      1.00     0.5823949014       
         C12       C         0.79680   0.06870   0.29680   0.00000   Uiso      1.00     0.5823949014       
         C13       C         0.20320   0.29680   0.06870   0.00000   Uiso      1.00     0.5823949014       
         C14       C         0.79680   0.70320   0.06870   0.00000   Uiso      1.00     0.5823949014       
         C15       C         0.20320   0.70320   0.93130   0.00000   Uiso      1.00     0.5823949014       
         C16       C         0.79680   0.29680   0.93130   0.00000   Uiso      1.00     0.5823949014       
         C17       C         0.29680   0.93130   0.79680   0.00000   Uiso      1.00     0.5823949014       
         C18       C         0.70320   0.93130   0.20320   0.00000   Uiso      1.00     0.5823949014       
         C19       C         0.70320   0.06870   0.79680   0.00000   Uiso      1.00     0.5823949014       
         C20       C         0.29680   0.06870   0.20320   0.00000   Uiso      1.00     0.5823949014       
         C21       C         0.93130   0.20320   0.70320   0.00000   Uiso      1.00     0.5823949014       
         C22       C         0.93130   0.79680   0.29680   0.00000   Uiso      1.00     0.5823949014       
         C23       C         0.06870   0.20320   0.29680   0.00000   Uiso      1.00     0.5823949014       
         C24       C         0.06870   0.79680   0.70320   0.00000   Uiso      1.00     0.5823949014       
         C25       C         0.70320   0.79680   0.06870   0.00000   Uiso      1.00     0.5823949014       
         C26       C         0.29680   0.20320   0.06870   0.00000   Uiso      1.00     0.5823949014       
         C27       C         0.29680   0.79680   0.93130   0.00000   Uiso      1.00     0.5823949014       
         C28       C         0.70320   0.20320   0.93130   0.00000   Uiso      1.00     0.5823949014       
         C29       C         0.06870   0.70320   0.79680   0.00000   Uiso      1.00     0.5823949014       
         C30       C         0.06870   0.29680   0.20320   0.00000   Uiso      1.00     0.5823949014       
         C31       C         0.93130   0.29680   0.79680   0.00000   Uiso      1.00     0.5823949014       
         C32       C         0.93130   0.70320   0.20320   0.00000   Uiso      1.00     0.5823949014       
         C33       C         0.79680   0.06870   0.70320   0.00000   Uiso      1.00     0.5823949014       
         C34       C         0.20320   0.06870   0.29680   0.00000   Uiso      1.00     0.5823949014       
         C35       C         0.79680   0.93130   0.29680   0.00000   Uiso      1.00     0.5823949014       
         C36       C         0.20320   0.93130   0.70320   0.00000   Uiso      1.00     0.5823949014       
         C37       C         0.79680   0.70320   0.93130   0.00000   Uiso      1.00     0.5823949014       
         C38       C         0.20320   0.29680   0.93130   0.00000   Uiso      1.00     0.5823949014       
         C39       C         0.79680   0.29680   0.06870   0.00000   Uiso      1.00     0.5823949014       
         C40       C         0.20320   0.70320   0.06870   0.00000   Uiso      1.00     0.5823949014       
         C41       C         0.70320   0.06870   0.20320   0.00000   Uiso      1.00     0.5823949014       
         C42       C         0.29680   0.06870   0.79680   0.00000   Uiso      1.00     0.5823949014       
         C43       C         0.29680   0.93130   0.20320   0.00000   Uiso      1.00     0.5823949014       
         C44       C         0.70320   0.93130   0.79680   0.00000   Uiso      1.00     0.5823949014       
         C45       C         0.06870   0.79680   0.29680   0.00000   Uiso      1.00     0.5823949014       
         C46       C         0.06870   0.20320   0.70320   0.00000   Uiso      1.00     0.5823949014       
         C47       C         0.93130   0.79680   0.70320   0.00000   Uiso      1.00     0.5823949014       
         C48       C         0.93130   0.20320   0.29680   0.00000   Uiso      1.00     0.5823949014       
         C49       C         0.29680   0.70320   0.43130   0.00000   Uiso      1.00     0.5823949014       
         C50       C         0.70320   0.29680   0.43130   0.00000   Uiso      1.00     0.5823949014       
         C51       C         0.70320   0.70320   0.56870   0.00000   Uiso      1.00     0.5823949014       
         C52       C         0.29680   0.29680   0.56870   0.00000   Uiso      1.00     0.5823949014       
         C53       C         0.20320   0.43130   0.79680   0.00000   Uiso      1.00     0.5823949014       
         C54       C         0.79680   0.43130   0.20320   0.00000   Uiso      1.00     0.5823949014       
         C55       C         0.20320   0.56870   0.20320   0.00000   Uiso      1.00     0.5823949014       
         C56       C         0.79680   0.56870   0.79680   0.00000   Uiso      1.00     0.5823949014       
         C57       C         0.20320   0.79680   0.56870   0.00000   Uiso      1.00     0.5823949014       
         C58       C         0.79680   0.20320   0.56870   0.00000   Uiso      1.00     0.5823949014       
         C59       C         0.20320   0.20320   0.43130   0.00000   Uiso      1.00     0.5823949014       
         C60       C         0.79680   0.79680   0.43130   0.00000   Uiso      1.00     0.5823949014       
         C61       C         0.29680   0.43130   0.29680   0.00000   Uiso      1.00     0.5823949014       
         C62       C         0.70320   0.43130   0.70320   0.00000   Uiso      1.00     0.5823949014       
         C63       C         0.70320   0.56870   0.29680   0.00000   Uiso      1.00     0.5823949014       
         C64       C         0.29680   0.56870   0.70320   0.00000   Uiso      1.00     0.5823949014       
         C65       C         0.70320   0.29680   0.56870   0.00000   Uiso      1.00     0.5823949014       
         C66       C         0.29680   0.70320   0.56870   0.00000   Uiso      1.00     0.5823949014       
         C67       C         0.29680   0.29680   0.43130   0.00000   Uiso      1.00     0.5823949014       
         C68       C         0.70320   0.70320   0.43130   0.00000   Uiso      1.00     0.5823949014       
         C69       C         0.79680   0.56870   0.20320   0.00000   Uiso      1.00     0.5823949014       
         C70       C         0.20320   0.56870   0.79680   0.00000   Uiso      1.00     0.5823949014       
         C71       C         0.79680   0.43130   0.79680   0.00000   Uiso      1.00     0.5823949014       
         C72       C         0.20320   0.43130   0.20320   0.00000   Uiso      1.00     0.5823949014       
         C73       C         0.79680   0.20320   0.43130   0.00000   Uiso      1.00     0.5823949014       
         C74       C         0.20320   0.79680   0.43130   0.00000   Uiso      1.00     0.5823949014       
         C75       C         0.79680   0.79680   0.56870   0.00000   Uiso      1.00     0.5823949014       
         C76       C         0.20320   0.20320   0.56870   0.00000   Uiso      1.00     0.5823949014       
         C77       C         0.70320   0.56870   0.70320   0.00000   Uiso      1.00     0.5823949014       
         C78       C         0.29680   0.56870   0.29680   0.00000   Uiso      1.00     0.5823949014       
         C79       C         0.29680   0.43130   0.70320   0.00000   Uiso      1.00     0.5823949014       
         C80       C         0.70320   0.43130   0.29680   0.00000   Uiso      1.00     0.5823949014       
         C81       C         0.43130   0.29680   0.70320   0.00000   Uiso      1.00     0.5823949014       
         C82       C         0.43130   0.70320   0.29680   0.00000   Uiso      1.00     0.5823949014       
         C83       C         0.56870   0.70320   0.70320   0.00000   Uiso      1.00     0.5823949014       
         C84       C         0.56870   0.29680   0.29680   0.00000   Uiso      1.00     0.5823949014       
         C85       C         0.43130   0.20320   0.20320   0.00000   Uiso      1.00     0.5823949014       
         C86       C         0.43130   0.79680   0.79680   0.00000   Uiso      1.00     0.5823949014       
         C87       C         0.56870   0.20320   0.79680   0.00000   Uiso      1.00     0.5823949014       
         C88       C         0.56870   0.79680   0.20320   0.00000   Uiso      1.00     0.5823949014       
         C89       C         0.56870   0.70320   0.29680   0.00000   Uiso      1.00     0.5823949014       
         C90       C         0.56870   0.29680   0.70320   0.00000   Uiso      1.00     0.5823949014       
         C91       C         0.43130   0.29680   0.29680   0.00000   Uiso      1.00     0.5823949014       
         C92       C         0.43130   0.70320   0.70320   0.00000   Uiso      1.00     0.5823949014       
         C93       C         0.56870   0.79680   0.79680   0.00000   Uiso      1.00     0.5823949014       
         C94       C         0.56870   0.20320   0.20320   0.00000   Uiso      1.00     0.5823949014       
         C95       C         0.43130   0.79680   0.20320   0.00000   Uiso      1.00     0.5823949014       
         C96       C         0.43130   0.20320   0.79680   0.00000   Uiso      1.00     0.5823949014       
         C97       C         0.32200   0.17800   0.88700   0.00000   Uiso      1.00     -0.0323495177      
         C98       C         0.67800   0.82200   0.88700   0.00000   Uiso      1.00     -0.0323495177      
         C99       C         0.67800   0.17800   0.11300   0.00000   Uiso      1.00     -0.0323495177      
         C100      C         0.32200   0.82200   0.11300   0.00000   Uiso      1.00     -0.0323495177      
         C101      C         0.88700   0.32200   0.17800   0.00000   Uiso      1.00     -0.0323495177      
         C102      C         0.88700   0.67800   0.82200   0.00000   Uiso      1.00     -0.0323495177      
         C103      C         0.11300   0.67800   0.17800   0.00000   Uiso      1.00     -0.0323495177      
         C104      C         0.11300   0.32200   0.82200   0.00000   Uiso      1.00     -0.0323495177      
         C105      C         0.17800   0.88700   0.32200   0.00000   Uiso      1.00     -0.0323495177      
         C106      C         0.82200   0.88700   0.67800   0.00000   Uiso      1.00     -0.0323495177      
         C107      C         0.17800   0.11300   0.67800   0.00000   Uiso      1.00     -0.0323495177      
         C108      C         0.82200   0.11300   0.32200   0.00000   Uiso      1.00     -0.0323495177      
         C109      C         0.17800   0.32200   0.11300   0.00000   Uiso      1.00     -0.0323495177      
         C110      C         0.82200   0.67800   0.11300   0.00000   Uiso      1.00     -0.0323495177      
         C111      C         0.17800   0.67800   0.88700   0.00000   Uiso      1.00     -0.0323495177      
         C112      C         0.82200   0.32200   0.88700   0.00000   Uiso      1.00     -0.0323495177      
         C113      C         0.32200   0.88700   0.82200   0.00000   Uiso      1.00     -0.0323495177      
         C114      C         0.67800   0.88700   0.17800   0.00000   Uiso      1.00     -0.0323495177      
         C115      C         0.67800   0.11300   0.82200   0.00000   Uiso      1.00     -0.0323495177      
         C116      C         0.32200   0.11300   0.17800   0.00000   Uiso      1.00     -0.0323495177      
         C117      C         0.88700   0.17800   0.67800   0.00000   Uiso      1.00     -0.0323495177      
         C118      C         0.88700   0.82200   0.32200   0.00000   Uiso      1.00     -0.0323495177      
         C119      C         0.11300   0.17800   0.32200   0.00000   Uiso      1.00     -0.0323495177      
         C120      C         0.11300   0.82200   0.67800   0.00000   Uiso      1.00     -0.0323495177      
         C121      C         0.67800   0.82200   0.11300   0.00000   Uiso      1.00     -0.0323495177      
         C122      C         0.32200   0.17800   0.11300   0.00000   Uiso      1.00     -0.0323495177      
         C123      C         0.32200   0.82200   0.88700   0.00000   Uiso      1.00     -0.0323495177      
         C124      C         0.67800   0.17800   0.88700   0.00000   Uiso      1.00     -0.0323495177      
         C125      C         0.11300   0.67800   0.82200   0.00000   Uiso      1.00     -0.0323495177      
         C126      C         0.11300   0.32200   0.17800   0.00000   Uiso      1.00     -0.0323495177      
         C127      C         0.88700   0.32200   0.82200   0.00000   Uiso      1.00     -0.0323495177      
         C128      C         0.88700   0.67800   0.17800   0.00000   Uiso      1.00     -0.0323495177      
         C129      C         0.82200   0.11300   0.67800   0.00000   Uiso      1.00     -0.0323495177      
         C130      C         0.17800   0.11300   0.32200   0.00000   Uiso      1.00     -0.0323495177      
         C131      C         0.82200   0.88700   0.32200   0.00000   Uiso      1.00     -0.0323495177      
         C132      C         0.17800   0.88700   0.67800   0.00000   Uiso      1.00     -0.0323495177      
         C133      C         0.82200   0.67800   0.88700   0.00000   Uiso      1.00     -0.0323495177      
         C134      C         0.17800   0.32200   0.88700   0.00000   Uiso      1.00     -0.0323495177      
         C135      C         0.82200   0.32200   0.11300   0.00000   Uiso      1.00     -0.0323495177      
         C136      C         0.17800   0.67800   0.11300   0.00000   Uiso      1.00     -0.0323495177      
         C137      C         0.67800   0.11300   0.17800   0.00000   Uiso      1.00     -0.0323495177      
         C138      C         0.32200   0.11300   0.82200   0.00000   Uiso      1.00     -0.0323495177      
         C139      C         0.32200   0.88700   0.17800   0.00000   Uiso      1.00     -0.0323495177      
         C140      C         0.67800   0.88700   0.82200   0.00000   Uiso      1.00     -0.0323495177      
         C141      C         0.11300   0.82200   0.32200   0.00000   Uiso      1.00     -0.0323495177      
         C142      C         0.11300   0.17800   0.67800   0.00000   Uiso      1.00     -0.0323495177      
         C143      C         0.88700   0.82200   0.67800   0.00000   Uiso      1.00     -0.0323495177      
         C144      C         0.88700   0.17800   0.32200   0.00000   Uiso      1.00     -0.0323495177      
         C145      C         0.32200   0.67800   0.38700   0.00000   Uiso      1.00     -0.0323495177      
         C146      C         0.67800   0.32200   0.38700   0.00000   Uiso      1.00     -0.0323495177      
         C147      C         0.67800   0.67800   0.61300   0.00000   Uiso      1.00     -0.0323495177      
         C148      C         0.32200   0.32200   0.61300   0.00000   Uiso      1.00     -0.0323495177      
         C149      C         0.17800   0.38700   0.82200   0.00000   Uiso      1.00     -0.0323495177      
         C150      C         0.82200   0.38700   0.17800   0.00000   Uiso      1.00     -0.0323495177      
         C151      C         0.17800   0.61300   0.17800   0.00000   Uiso      1.00     -0.0323495177      
         C152      C         0.82200   0.61300   0.82200   0.00000   Uiso      1.00     -0.0323495177      
         C153      C         0.17800   0.82200   0.61300   0.00000   Uiso      1.00     -0.0323495177      
         C154      C         0.82200   0.17800   0.61300   0.00000   Uiso      1.00     -0.0323495177      
         C155      C         0.17800   0.17800   0.38700   0.00000   Uiso      1.00     -0.0323495177      
         C156      C         0.82200   0.82200   0.38700   0.00000   Uiso      1.00     -0.0323495177      
         C157      C         0.32200   0.38700   0.32200   0.00000   Uiso      1.00     -0.0323495177      
         C158      C         0.67800   0.38700   0.67800   0.00000   Uiso      1.00     -0.0323495177      
         C159      C         0.67800   0.61300   0.32200   0.00000   Uiso      1.00     -0.0323495177      
         C160      C         0.32200   0.61300   0.67800   0.00000   Uiso      1.00     -0.0323495177      
         C161      C         0.67800   0.32200   0.61300   0.00000   Uiso      1.00     -0.0323495177      
         C162      C         0.32200   0.67800   0.61300   0.00000   Uiso      1.00     -0.0323495177      
         C163      C         0.32200   0.32200   0.38700   0.00000   Uiso      1.00     -0.0323495177      
         C164      C         0.67800   0.67800   0.38700   0.00000   Uiso      1.00     -0.0323495177      
         C165      C         0.82200   0.61300   0.17800   0.00000   Uiso      1.00     -0.0323495177      
         C166      C         0.17800   0.61300   0.82200   0.00000   Uiso      1.00     -0.0323495177      
         C167      C         0.82200   0.38700   0.82200   0.00000   Uiso      1.00     -0.0323495177      
         C168      C         0.17800   0.38700   0.17800   0.00000   Uiso      1.00     -0.0323495177      
         C169      C         0.82200   0.17800   0.38700   0.00000   Uiso      1.00     -0.0323495177      
         C170      C         0.17800   0.82200   0.38700   0.00000   Uiso      1.00     -0.0323495177      
         C171      C         0.82200   0.82200   0.61300   0.00000   Uiso      1.00     -0.0323495177      
         C172      C         0.17800   0.17800   0.61300   0.00000   Uiso      1.00     -0.0323495177      
         C173      C         0.67800   0.61300   0.67800   0.00000   Uiso      1.00     -0.0323495177      
         C174      C         0.32200   0.61300   0.32200   0.00000   Uiso      1.00     -0.0323495177      
         C175      C         0.32200   0.38700   0.67800   0.00000   Uiso      1.00     -0.0323495177      
         C176      C         0.67800   0.38700   0.32200   0.00000   Uiso      1.00     -0.0323495177      
         C177      C         0.38700   0.32200   0.67800   0.00000   Uiso      1.00     -0.0323495177      
         C178      C         0.38700   0.67800   0.32200   0.00000   Uiso      1.00     -0.0323495177      
         C179      C         0.61300   0.67800   0.67800   0.00000   Uiso      1.00     -0.0323495177      
         C180      C         0.61300   0.32200   0.32200   0.00000   Uiso      1.00     -0.0323495177      
         C181      C         0.38700   0.17800   0.17800   0.00000   Uiso      1.00     -0.0323495177      
         C182      C         0.38700   0.82200   0.82200   0.00000   Uiso      1.00     -0.0323495177      
         C183      C         0.61300   0.17800   0.82200   0.00000   Uiso      1.00     -0.0323495177      
         C184      C         0.61300   0.82200   0.17800   0.00000   Uiso      1.00     -0.0323495177      
         C185      C         0.61300   0.67800   0.32200   0.00000   Uiso      1.00     -0.0323495177      
         C186      C         0.61300   0.32200   0.67800   0.00000   Uiso      1.00     -0.0323495177      
         C187      C         0.38700   0.32200   0.32200   0.00000   Uiso      1.00     -0.0323495177      
         C188      C         0.38700   0.67800   0.67800   0.00000   Uiso      1.00     -0.0323495177      
         C189      C         0.61300   0.82200   0.82200   0.00000   Uiso      1.00     -0.0323495177      
         C190      C         0.61300   0.17800   0.17800   0.00000   Uiso      1.00     -0.0323495177      
         C191      C         0.38700   0.82200   0.17800   0.00000   Uiso      1.00     -0.0323495177      
         C192      C         0.38700   0.17800   0.82200   0.00000   Uiso      1.00     -0.0323495177      
         C193      C         0.36550   0.19940   0.86550   0.00000   Uiso      1.00     -0.0848092407      
         C194      C         0.63450   0.80060   0.86550   0.00000   Uiso      1.00     -0.0848092407      
         C195      C         0.63450   0.19940   0.13450   0.00000   Uiso      1.00     -0.0848092407      
         C196      C         0.36550   0.80060   0.13450   0.00000   Uiso      1.00     -0.0848092407      
         C197      C         0.86550   0.36550   0.19940   0.00000   Uiso      1.00     -0.0848092407      
         C198      C         0.86550   0.63450   0.80060   0.00000   Uiso      1.00     -0.0848092407      
         C199      C         0.13450   0.63450   0.19940   0.00000   Uiso      1.00     -0.0848092407      
         C200      C         0.13450   0.36550   0.80060   0.00000   Uiso      1.00     -0.0848092407      
         C201      C         0.19940   0.86550   0.36550   0.00000   Uiso      1.00     -0.0848092407      
         C202      C         0.80060   0.86550   0.63450   0.00000   Uiso      1.00     -0.0848092407      
         C203      C         0.19940   0.13450   0.63450   0.00000   Uiso      1.00     -0.0848092407      
         C204      C         0.80060   0.13450   0.36550   0.00000   Uiso      1.00     -0.0848092407      
         C205      C         0.19940   0.36550   0.13450   0.00000   Uiso      1.00     -0.0848092407      
         C206      C         0.80060   0.63450   0.13450   0.00000   Uiso      1.00     -0.0848092407      
         C207      C         0.19940   0.63450   0.86550   0.00000   Uiso      1.00     -0.0848092407      
         C208      C         0.80060   0.36550   0.86550   0.00000   Uiso      1.00     -0.0848092407      
         C209      C         0.36550   0.86550   0.80060   0.00000   Uiso      1.00     -0.0848092407      
         C210      C         0.63450   0.86550   0.19940   0.00000   Uiso      1.00     -0.0848092407      
         C211      C         0.63450   0.13450   0.80060   0.00000   Uiso      1.00     -0.0848092407      
         C212      C         0.36550   0.13450   0.19940   0.00000   Uiso      1.00     -0.0848092407      
         C213      C         0.86550   0.19940   0.63450   0.00000   Uiso      1.00     -0.0848092407      
         C214      C         0.86550   0.80060   0.36550   0.00000   Uiso      1.00     -0.0848092407      
         C215      C         0.13450   0.19940   0.36550   0.00000   Uiso      1.00     -0.0848092407      
         C216      C         0.13450   0.80060   0.63450   0.00000   Uiso      1.00     -0.0848092407      
         C217      C         0.63450   0.80060   0.13450   0.00000   Uiso      1.00     -0.0848092407      
         C218      C         0.36550   0.19940   0.13450   0.00000   Uiso      1.00     -0.0848092407      
         C219      C         0.36550   0.80060   0.86550   0.00000   Uiso      1.00     -0.0848092407      
         C220      C         0.63450   0.19940   0.86550   0.00000   Uiso      1.00     -0.0848092407      
         C221      C         0.13450   0.63450   0.80060   0.00000   Uiso      1.00     -0.0848092407      
         C222      C         0.13450   0.36550   0.19940   0.00000   Uiso      1.00     -0.0848092407      
         C223      C         0.86550   0.36550   0.80060   0.00000   Uiso      1.00     -0.0848092407      
         C224      C         0.86550   0.63450   0.19940   0.00000   Uiso      1.00     -0.0848092407      
         C225      C         0.80060   0.13450   0.63450   0.00000   Uiso      1.00     -0.0848092407      
         C226      C         0.19940   0.13450   0.36550   0.00000   Uiso      1.00     -0.0848092407      
         C227      C         0.80060   0.86550   0.36550   0.00000   Uiso      1.00     -0.0848092407      
         C228      C         0.19940   0.86550   0.63450   0.00000   Uiso      1.00     -0.0848092407      
         C229      C         0.80060   0.63450   0.86550   0.00000   Uiso      1.00     -0.0848092407      
         C230      C         0.19940   0.36550   0.86550   0.00000   Uiso      1.00     -0.0848092407      
         C231      C         0.80060   0.36550   0.13450   0.00000   Uiso      1.00     -0.0848092407      
         C232      C         0.19940   0.63450   0.13450   0.00000   Uiso      1.00     -0.0848092407      
         C233      C         0.63450   0.13450   0.19940   0.00000   Uiso      1.00     -0.0848092407      
         C234      C         0.36550   0.13450   0.80060   0.00000   Uiso      1.00     -0.0848092407      
         C235      C         0.36550   0.86550   0.19940   0.00000   Uiso      1.00     -0.0848092407      
         C236      C         0.63450   0.86550   0.80060   0.00000   Uiso      1.00     -0.0848092407      
         C237      C         0.13450   0.80060   0.36550   0.00000   Uiso      1.00     -0.0848092407      
         C238      C         0.13450   0.19940   0.63450   0.00000   Uiso      1.00     -0.0848092407      
         C239      C         0.86550   0.80060   0.63450   0.00000   Uiso      1.00     -0.0848092407      
         C240      C         0.86550   0.19940   0.36550   0.00000   Uiso      1.00     -0.0848092407      
         C241      C         0.36550   0.69940   0.36550   0.00000   Uiso      1.00     -0.0848092407      
         C242      C         0.63450   0.30060   0.36550   0.00000   Uiso      1.00     -0.0848092407      
         C243      C         0.63450   0.69940   0.63450   0.00000   Uiso      1.00     -0.0848092407      
         C244      C         0.36550   0.30060   0.63450   0.00000   Uiso      1.00     -0.0848092407      
         C245      C         0.86550   0.86550   0.69940   0.00000   Uiso      1.00     -0.0848092407      
         C246      C         0.86550   0.13450   0.30060   0.00000   Uiso      1.00     -0.0848092407      
         C247      C         0.13450   0.13450   0.69940   0.00000   Uiso      1.00     -0.0848092407      
         C248      C         0.13450   0.86550   0.30060   0.00000   Uiso      1.00     -0.0848092407      
         C249      C         0.36550   0.36550   0.30060   0.00000   Uiso      1.00     -0.0848092407      
         C250      C         0.63450   0.36550   0.69940   0.00000   Uiso      1.00     -0.0848092407      
         C251      C         0.63450   0.63450   0.30060   0.00000   Uiso      1.00     -0.0848092407      
         C252      C         0.36550   0.63450   0.69940   0.00000   Uiso      1.00     -0.0848092407      
         C253      C         0.86550   0.69940   0.13450   0.00000   Uiso      1.00     -0.0848092407      
         C254      C         0.86550   0.30060   0.86550   0.00000   Uiso      1.00     -0.0848092407      
         C255      C         0.13450   0.69940   0.86550   0.00000   Uiso      1.00     -0.0848092407      
         C256      C         0.13450   0.30060   0.13450   0.00000   Uiso      1.00     -0.0848092407      
         C257      C         0.63450   0.30060   0.63450   0.00000   Uiso      1.00     -0.0848092407      
         C258      C         0.36550   0.69940   0.63450   0.00000   Uiso      1.00     -0.0848092407      
         C259      C         0.36550   0.30060   0.36550   0.00000   Uiso      1.00     -0.0848092407      
         C260      C         0.63450   0.69940   0.36550   0.00000   Uiso      1.00     -0.0848092407      
         C261      C         0.13450   0.13450   0.30060   0.00000   Uiso      1.00     -0.0848092407      
         C262      C         0.13450   0.86550   0.69940   0.00000   Uiso      1.00     -0.0848092407      
         C263      C         0.86550   0.86550   0.30060   0.00000   Uiso      1.00     -0.0848092407      
         C264      C         0.86550   0.13450   0.69940   0.00000   Uiso      1.00     -0.0848092407      
         C265      C         0.63450   0.63450   0.69940   0.00000   Uiso      1.00     -0.0848092407      
         C266      C         0.36550   0.63450   0.30060   0.00000   Uiso      1.00     -0.0848092407      
         C267      C         0.36550   0.36550   0.69940   0.00000   Uiso      1.00     -0.0848092407      
         C268      C         0.63450   0.36550   0.30060   0.00000   Uiso      1.00     -0.0848092407      
         C269      C         0.13450   0.30060   0.86550   0.00000   Uiso      1.00     -0.0848092407      
         C270      C         0.13450   0.69940   0.13450   0.00000   Uiso      1.00     -0.0848092407      
         C271      C         0.86550   0.30060   0.13450   0.00000   Uiso      1.00     -0.0848092407      
         C272      C         0.86550   0.69940   0.86550   0.00000   Uiso      1.00     -0.0848092407      
         C273      C         0.69940   0.86550   0.86550   0.00000   Uiso      1.00     -0.0848092407      
         C274      C         0.30060   0.86550   0.13450   0.00000   Uiso      1.00     -0.0848092407      
         C275      C         0.69940   0.13450   0.13450   0.00000   Uiso      1.00     -0.0848092407      
         C276      C         0.30060   0.13450   0.86550   0.00000   Uiso      1.00     -0.0848092407      
         C277      C         0.69940   0.36550   0.63450   0.00000   Uiso      1.00     -0.0848092407      
         C278      C         0.30060   0.63450   0.63450   0.00000   Uiso      1.00     -0.0848092407      
         C279      C         0.69940   0.63450   0.36550   0.00000   Uiso      1.00     -0.0848092407      
         C280      C         0.30060   0.36550   0.36550   0.00000   Uiso      1.00     -0.0848092407      
         C281      C         0.30060   0.13450   0.13450   0.00000   Uiso      1.00     -0.0848092407      
         C282      C         0.69940   0.13450   0.86550   0.00000   Uiso      1.00     -0.0848092407      
         C283      C         0.30060   0.86550   0.86550   0.00000   Uiso      1.00     -0.0848092407      
         C284      C         0.69940   0.86550   0.13450   0.00000   Uiso      1.00     -0.0848092407      
         C285      C         0.30060   0.63450   0.36550   0.00000   Uiso      1.00     -0.0848092407      
         C286      C         0.69940   0.36550   0.36550   0.00000   Uiso      1.00     -0.0848092407      
         C287      C         0.30060   0.36550   0.63450   0.00000   Uiso      1.00     -0.0848092407      
         C288      C         0.69940   0.63450   0.63450   0.00000   Uiso      1.00     -0.0848092407      
         O1        O         0.31660   0.24310   0.94780   0.00000   Uiso      1.00     -0.5156690426      
         O2        O         0.68340   0.75690   0.94780   0.00000   Uiso      1.00     -0.5156690426      
         O3        O         0.68340   0.24310   0.05220   0.00000   Uiso      1.00     -0.5156690426      
         O4        O         0.31660   0.75690   0.05220   0.00000   Uiso      1.00     -0.5156690426      
         O5        O         0.94780   0.31660   0.24310   0.00000   Uiso      1.00     -0.5156690426      
         O6        O         0.94780   0.68340   0.75690   0.00000   Uiso      1.00     -0.5156690426      
         O7        O         0.05220   0.68340   0.24310   0.00000   Uiso      1.00     -0.5156690426      
         O8        O         0.05220   0.31660   0.75690   0.00000   Uiso      1.00     -0.5156690426      
         O9        O         0.24310   0.94780   0.31660   0.00000   Uiso      1.00     -0.5156690426      
         O10       O         0.75690   0.94780   0.68340   0.00000   Uiso      1.00     -0.5156690426      
         O11       O         0.24310   0.05220   0.68340   0.00000   Uiso      1.00     -0.5156690426      
         O12       O         0.75690   0.05220   0.31660   0.00000   Uiso      1.00     -0.5156690426      
         O13       O         0.24310   0.31660   0.05220   0.00000   Uiso      1.00     -0.5156690426      
         O14       O         0.75690   0.68340   0.05220   0.00000   Uiso      1.00     -0.5156690426      
         O15       O         0.24310   0.68340   0.94780   0.00000   Uiso      1.00     -0.5156690426      
         O16       O         0.75690   0.31660   0.94780   0.00000   Uiso      1.00     -0.5156690426      
         O17       O         0.31660   0.94780   0.75690   0.00000   Uiso      1.00     -0.5156690426      
         O18       O         0.68340   0.94780   0.24310   0.00000   Uiso      1.00     -0.5156690426      
         O19       O         0.68340   0.05220   0.75690   0.00000   Uiso      1.00     -0.5156690426      
         O20       O         0.31660   0.05220   0.24310   0.00000   Uiso      1.00     -0.5156690426      
         O21       O         0.94780   0.24310   0.68340   0.00000   Uiso      1.00     -0.5156690426      
         O22       O         0.94780   0.75690   0.31660   0.00000   Uiso      1.00     -0.5156690426      
         O23       O         0.05220   0.24310   0.31660   0.00000   Uiso      1.00     -0.5156690426      
         O24       O         0.05220   0.75690   0.68340   0.00000   Uiso      1.00     -0.5156690426      
         O25       O         0.68340   0.75690   0.05220   0.00000   Uiso      1.00     -0.5156690426      
         O26       O         0.31660   0.24310   0.05220   0.00000   Uiso      1.00     -0.5156690426      
         O27       O         0.31660   0.75690   0.94780   0.00000   Uiso      1.00     -0.5156690426      
         O28       O         0.68340   0.24310   0.94780   0.00000   Uiso      1.00     -0.5156690426      
         O29       O         0.05220   0.68340   0.75690   0.00000   Uiso      1.00     -0.5156690426      
         O30       O         0.05220   0.31660   0.24310   0.00000   Uiso      1.00     -0.5156690426      
         O31       O         0.94780   0.31660   0.75690   0.00000   Uiso      1.00     -0.5156690426      
         O32       O         0.94780   0.68340   0.24310   0.00000   Uiso      1.00     -0.5156690426      
         O33       O         0.75690   0.05220   0.68340   0.00000   Uiso      1.00     -0.5156690426      
         O34       O         0.24310   0.05220   0.31660   0.00000   Uiso      1.00     -0.5156690426      
         O35       O         0.75690   0.94780   0.31660   0.00000   Uiso      1.00     -0.5156690426      
         O36       O         0.24310   0.94780   0.68340   0.00000   Uiso      1.00     -0.5156690426      
         O37       O         0.75690   0.68340   0.94780   0.00000   Uiso      1.00     -0.5156690426      
         O38       O         0.24310   0.31660   0.94780   0.00000   Uiso      1.00     -0.5156690426      
         O39       O         0.75690   0.31660   0.05220   0.00000   Uiso      1.00     -0.5156690426      
         O40       O         0.24310   0.68340   0.05220   0.00000   Uiso      1.00     -0.5156690426      
         O41       O         0.68340   0.05220   0.24310   0.00000   Uiso      1.00     -0.5156690426      
         O42       O         0.31660   0.05220   0.75690   0.00000   Uiso      1.00     -0.5156690426      
         O43       O         0.31660   0.94780   0.24310   0.00000   Uiso      1.00     -0.5156690426      
         O44       O         0.68340   0.94780   0.75690   0.00000   Uiso      1.00     -0.5156690426      
         O45       O         0.05220   0.75690   0.31660   0.00000   Uiso      1.00     -0.5156690426      
         O46       O         0.05220   0.24310   0.68340   0.00000   Uiso      1.00     -0.5156690426      
         O47       O         0.94780   0.75690   0.68340   0.00000   Uiso      1.00     -0.5156690426      
         O48       O         0.94780   0.24310   0.31660   0.00000   Uiso      1.00     -0.5156690426      
         O49       O         0.31660   0.74310   0.44780   0.00000   Uiso      1.00     -0.5156690426      
         O50       O         0.68340   0.25690   0.44780   0.00000   Uiso      1.00     -0.5156690426      
         O51       O         0.68340   0.74310   0.55220   0.00000   Uiso      1.00     -0.5156690426      
         O52       O         0.31660   0.25690   0.55220   0.00000   Uiso      1.00     -0.5156690426      
         O53       O         0.94780   0.81660   0.74310   0.00000   Uiso      1.00     -0.5156690426      
         O54       O         0.94780   0.18340   0.25690   0.00000   Uiso      1.00     -0.5156690426      
         O55       O         0.05220   0.18340   0.74310   0.00000   Uiso      1.00     -0.5156690426      
         O56       O         0.05220   0.81660   0.25690   0.00000   Uiso      1.00     -0.5156690426      
         O57       O         0.24310   0.44780   0.81660   0.00000   Uiso      1.00     -0.5156690426      
         O58       O         0.75690   0.44780   0.18340   0.00000   Uiso      1.00     -0.5156690426      
         O59       O         0.24310   0.55220   0.18340   0.00000   Uiso      1.00     -0.5156690426      
         O60       O         0.75690   0.55220   0.81660   0.00000   Uiso      1.00     -0.5156690426      
         O61       O         0.24310   0.81660   0.55220   0.00000   Uiso      1.00     -0.5156690426      
         O62       O         0.75690   0.18340   0.55220   0.00000   Uiso      1.00     -0.5156690426      
         O63       O         0.24310   0.18340   0.44780   0.00000   Uiso      1.00     -0.5156690426      
         O64       O         0.75690   0.81660   0.44780   0.00000   Uiso      1.00     -0.5156690426      
         O65       O         0.31660   0.44780   0.25690   0.00000   Uiso      1.00     -0.5156690426      
         O66       O         0.68340   0.44780   0.74310   0.00000   Uiso      1.00     -0.5156690426      
         O67       O         0.68340   0.55220   0.25690   0.00000   Uiso      1.00     -0.5156690426      
         O68       O         0.31660   0.55220   0.74310   0.00000   Uiso      1.00     -0.5156690426      
         O69       O         0.94780   0.74310   0.18340   0.00000   Uiso      1.00     -0.5156690426      
         O70       O         0.94780   0.25690   0.81660   0.00000   Uiso      1.00     -0.5156690426      
         O71       O         0.05220   0.74310   0.81660   0.00000   Uiso      1.00     -0.5156690426      
         O72       O         0.05220   0.25690   0.18340   0.00000   Uiso      1.00     -0.5156690426      
         O73       O         0.68340   0.25690   0.55220   0.00000   Uiso      1.00     -0.5156690426      
         O74       O         0.31660   0.74310   0.55220   0.00000   Uiso      1.00     -0.5156690426      
         O75       O         0.31660   0.25690   0.44780   0.00000   Uiso      1.00     -0.5156690426      
         O76       O         0.68340   0.74310   0.44780   0.00000   Uiso      1.00     -0.5156690426      
         O77       O         0.05220   0.18340   0.25690   0.00000   Uiso      1.00     -0.5156690426      
         O78       O         0.05220   0.81660   0.74310   0.00000   Uiso      1.00     -0.5156690426      
         O79       O         0.94780   0.81660   0.25690   0.00000   Uiso      1.00     -0.5156690426      
         O80       O         0.94780   0.18340   0.74310   0.00000   Uiso      1.00     -0.5156690426      
         O81       O         0.75690   0.55220   0.18340   0.00000   Uiso      1.00     -0.5156690426      
         O82       O         0.24310   0.55220   0.81660   0.00000   Uiso      1.00     -0.5156690426      
         O83       O         0.75690   0.44780   0.81660   0.00000   Uiso      1.00     -0.5156690426      
         O84       O         0.24310   0.44780   0.18340   0.00000   Uiso      1.00     -0.5156690426      
         O85       O         0.75690   0.18340   0.44780   0.00000   Uiso      1.00     -0.5156690426      
         O86       O         0.24310   0.81660   0.44780   0.00000   Uiso      1.00     -0.5156690426      
         O87       O         0.75690   0.81660   0.55220   0.00000   Uiso      1.00     -0.5156690426      
         O88       O         0.24310   0.18340   0.55220   0.00000   Uiso      1.00     -0.5156690426      
         O89       O         0.68340   0.55220   0.74310   0.00000   Uiso      1.00     -0.5156690426      
         O90       O         0.31660   0.55220   0.25690   0.00000   Uiso      1.00     -0.5156690426      
         O91       O         0.31660   0.44780   0.74310   0.00000   Uiso      1.00     -0.5156690426      
         O92       O         0.68340   0.44780   0.25690   0.00000   Uiso      1.00     -0.5156690426      
         O93       O         0.05220   0.25690   0.81660   0.00000   Uiso      1.00     -0.5156690426      
         O94       O         0.05220   0.74310   0.18340   0.00000   Uiso      1.00     -0.5156690426      
         O95       O         0.94780   0.25690   0.18340   0.00000   Uiso      1.00     -0.5156690426      
         O96       O         0.94780   0.74310   0.81660   0.00000   Uiso      1.00     -0.5156690426      
         O97       O         0.81660   0.24310   0.44780   0.00000   Uiso      1.00     -0.5156690426      
         O98       O         0.18340   0.75690   0.44780   0.00000   Uiso      1.00     -0.5156690426      
         O99       O         0.18340   0.24310   0.55220   0.00000   Uiso      1.00     -0.5156690426      
         O100      O         0.81660   0.75690   0.55220   0.00000   Uiso      1.00     -0.5156690426      
         O101      O         0.44780   0.31660   0.74310   0.00000   Uiso      1.00     -0.5156690426      
         O102      O         0.44780   0.68340   0.25690   0.00000   Uiso      1.00     -0.5156690426      
         O103      O         0.55220   0.68340   0.74310   0.00000   Uiso      1.00     -0.5156690426      
         O104      O         0.55220   0.31660   0.25690   0.00000   Uiso      1.00     -0.5156690426      
         O105      O         0.74310   0.94780   0.81660   0.00000   Uiso      1.00     -0.5156690426      
         O106      O         0.25690   0.94780   0.18340   0.00000   Uiso      1.00     -0.5156690426      
         O107      O         0.74310   0.05220   0.18340   0.00000   Uiso      1.00     -0.5156690426      
         O108      O         0.25690   0.05220   0.81660   0.00000   Uiso      1.00     -0.5156690426      
         O109      O         0.74310   0.31660   0.55220   0.00000   Uiso      1.00     -0.5156690426      
         O110      O         0.25690   0.68340   0.55220   0.00000   Uiso      1.00     -0.5156690426      
         O111      O         0.74310   0.68340   0.44780   0.00000   Uiso      1.00     -0.5156690426      
         O112      O         0.25690   0.31660   0.44780   0.00000   Uiso      1.00     -0.5156690426      
         O113      O         0.81660   0.94780   0.25690   0.00000   Uiso      1.00     -0.5156690426      
         O114      O         0.18340   0.94780   0.74310   0.00000   Uiso      1.00     -0.5156690426      
         O115      O         0.18340   0.05220   0.25690   0.00000   Uiso      1.00     -0.5156690426      
         O116      O         0.81660   0.05220   0.74310   0.00000   Uiso      1.00     -0.5156690426      
         O117      O         0.44780   0.24310   0.18340   0.00000   Uiso      1.00     -0.5156690426      
         O118      O         0.44780   0.75690   0.81660   0.00000   Uiso      1.00     -0.5156690426      
         O119      O         0.55220   0.24310   0.81660   0.00000   Uiso      1.00     -0.5156690426      
         O120      O         0.55220   0.75690   0.18340   0.00000   Uiso      1.00     -0.5156690426      
         O121      O         0.18340   0.75690   0.55220   0.00000   Uiso      1.00     -0.5156690426      
         O122      O         0.81660   0.24310   0.55220   0.00000   Uiso      1.00     -0.5156690426      
         O123      O         0.81660   0.75690   0.44780   0.00000   Uiso      1.00     -0.5156690426      
         O124      O         0.18340   0.24310   0.44780   0.00000   Uiso      1.00     -0.5156690426      
         O125      O         0.55220   0.68340   0.25690   0.00000   Uiso      1.00     -0.5156690426      
         O126      O         0.55220   0.31660   0.74310   0.00000   Uiso      1.00     -0.5156690426      
         O127      O         0.44780   0.31660   0.25690   0.00000   Uiso      1.00     -0.5156690426      
         O128      O         0.44780   0.68340   0.74310   0.00000   Uiso      1.00     -0.5156690426      
         O129      O         0.25690   0.05220   0.18340   0.00000   Uiso      1.00     -0.5156690426      
         O130      O         0.74310   0.05220   0.81660   0.00000   Uiso      1.00     -0.5156690426      
         O131      O         0.25690   0.94780   0.81660   0.00000   Uiso      1.00     -0.5156690426      
         O132      O         0.74310   0.94780   0.18340   0.00000   Uiso      1.00     -0.5156690426      
         O133      O         0.25690   0.68340   0.44780   0.00000   Uiso      1.00     -0.5156690426      
         O134      O         0.74310   0.31660   0.44780   0.00000   Uiso      1.00     -0.5156690426      
         O135      O         0.25690   0.31660   0.55220   0.00000   Uiso      1.00     -0.5156690426      
         O136      O         0.74310   0.68340   0.55220   0.00000   Uiso      1.00     -0.5156690426      
         O137      O         0.18340   0.05220   0.74310   0.00000   Uiso      1.00     -0.5156690426      
         O138      O         0.81660   0.05220   0.25690   0.00000   Uiso      1.00     -0.5156690426      
         O139      O         0.81660   0.94780   0.74310   0.00000   Uiso      1.00     -0.5156690426      
         O140      O         0.18340   0.94780   0.25690   0.00000   Uiso      1.00     -0.5156690426      
         O141      O         0.55220   0.75690   0.81660   0.00000   Uiso      1.00     -0.5156690426      
         O142      O         0.55220   0.24310   0.18340   0.00000   Uiso      1.00     -0.5156690426      
         O143      O         0.44780   0.75690   0.18340   0.00000   Uiso      1.00     -0.5156690426      
         O144      O         0.44780   0.24310   0.81660   0.00000   Uiso      1.00     -0.5156690426      
         O145      O         0.81660   0.74310   0.94780   0.00000   Uiso      1.00     -0.5156690426      
         O146      O         0.18340   0.25690   0.94780   0.00000   Uiso      1.00     -0.5156690426      
         O147      O         0.18340   0.74310   0.05220   0.00000   Uiso      1.00     -0.5156690426      
         O148      O         0.81660   0.25690   0.05220   0.00000   Uiso      1.00     -0.5156690426      
         O149      O         0.44780   0.81660   0.24310   0.00000   Uiso      1.00     -0.5156690426      
         O150      O         0.44780   0.18340   0.75690   0.00000   Uiso      1.00     -0.5156690426      
         O151      O         0.55220   0.18340   0.24310   0.00000   Uiso      1.00     -0.5156690426      
         O152      O         0.55220   0.81660   0.75690   0.00000   Uiso      1.00     -0.5156690426      
         O153      O         0.74310   0.44780   0.31660   0.00000   Uiso      1.00     -0.5156690426      
         O154      O         0.25690   0.44780   0.68340   0.00000   Uiso      1.00     -0.5156690426      
         O155      O         0.74310   0.55220   0.68340   0.00000   Uiso      1.00     -0.5156690426      
         O156      O         0.25690   0.55220   0.31660   0.00000   Uiso      1.00     -0.5156690426      
         O157      O         0.74310   0.81660   0.05220   0.00000   Uiso      1.00     -0.5156690426      
         O158      O         0.25690   0.18340   0.05220   0.00000   Uiso      1.00     -0.5156690426      
         O159      O         0.74310   0.18340   0.94780   0.00000   Uiso      1.00     -0.5156690426      
         O160      O         0.25690   0.81660   0.94780   0.00000   Uiso      1.00     -0.5156690426      
         O161      O         0.81660   0.44780   0.75690   0.00000   Uiso      1.00     -0.5156690426      
         O162      O         0.18340   0.44780   0.24310   0.00000   Uiso      1.00     -0.5156690426      
         O163      O         0.18340   0.55220   0.75690   0.00000   Uiso      1.00     -0.5156690426      
         O164      O         0.81660   0.55220   0.24310   0.00000   Uiso      1.00     -0.5156690426      
         O165      O         0.44780   0.74310   0.68340   0.00000   Uiso      1.00     -0.5156690426      
         O166      O         0.44780   0.25690   0.31660   0.00000   Uiso      1.00     -0.5156690426      
         O167      O         0.55220   0.74310   0.31660   0.00000   Uiso      1.00     -0.5156690426      
         O168      O         0.55220   0.25690   0.68340   0.00000   Uiso      1.00     -0.5156690426      
         O169      O         0.18340   0.25690   0.05220   0.00000   Uiso      1.00     -0.5156690426      
         O170      O         0.81660   0.74310   0.05220   0.00000   Uiso      1.00     -0.5156690426      
         O171      O         0.81660   0.25690   0.94780   0.00000   Uiso      1.00     -0.5156690426      
         O172      O         0.18340   0.74310   0.94780   0.00000   Uiso      1.00     -0.5156690426      
         O173      O         0.55220   0.18340   0.75690   0.00000   Uiso      1.00     -0.5156690426      
         O174      O         0.55220   0.81660   0.24310   0.00000   Uiso      1.00     -0.5156690426      
         O175      O         0.44780   0.81660   0.75690   0.00000   Uiso      1.00     -0.5156690426      
         O176      O         0.44780   0.18340   0.24310   0.00000   Uiso      1.00     -0.5156690426      
         O177      O         0.25690   0.55220   0.68340   0.00000   Uiso      1.00     -0.5156690426      
         O178      O         0.74310   0.55220   0.31660   0.00000   Uiso      1.00     -0.5156690426      
         O179      O         0.25690   0.44780   0.31660   0.00000   Uiso      1.00     -0.5156690426      
         O180      O         0.74310   0.44780   0.68340   0.00000   Uiso      1.00     -0.5156690426      
         O181      O         0.25690   0.18340   0.94780   0.00000   Uiso      1.00     -0.5156690426      
         O182      O         0.74310   0.81660   0.94780   0.00000   Uiso      1.00     -0.5156690426      
         O183      O         0.25690   0.81660   0.05220   0.00000   Uiso      1.00     -0.5156690426      
         O184      O         0.74310   0.18340   0.05220   0.00000   Uiso      1.00     -0.5156690426      
         O185      O         0.18340   0.55220   0.24310   0.00000   Uiso      1.00     -0.5156690426      
         O186      O         0.81660   0.55220   0.75690   0.00000   Uiso      1.00     -0.5156690426      
         O187      O         0.81660   0.44780   0.24310   0.00000   Uiso      1.00     -0.5156690426      
         O188      O         0.18340   0.44780   0.75690   0.00000   Uiso      1.00     -0.5156690426      
         O189      O         0.55220   0.25690   0.31660   0.00000   Uiso      1.00     -0.5156690426      
         O190      O         0.55220   0.74310   0.68340   0.00000   Uiso      1.00     -0.5156690426      
         O191      O         0.44780   0.25690   0.68340   0.00000   Uiso      1.00     -0.5156690426      
         O192      O         0.44780   0.74310   0.31660   0.00000   Uiso      1.00     -0.5156690426
loop_
  _geom_bond_atom_site_label_1
  _geom_bond_atom_site_label_2
  _geom_bond_distance
  _geom_bond_site_symmetry_2
  _ccdc_geom_bond_type
         Cu1       Cu38      2.630     .         S         
         Cu1       O1        1.951     1_554     S         
         Cu1       O13       1.951     .         S         
         Cu1       O26       1.951     .         S         
         Cu1       O38       1.951     1_554     S         
         Cu2       Cu37      2.630     .         S         
         Cu2       O2        1.951     1_554     S         
         Cu2       O14       1.951     .         S         
         Cu2       O25       1.951     .         S         
         Cu2       O37       1.951     1_554     S         
         Cu3       Cu40      2.630     .         S         
         Cu3       O3        1.951     .         S         
         Cu3       O16       1.951     1_554     S         
         Cu3       O28       1.951     1_554     S         
         Cu3       O39       1.951     .         S         
         Cu4       Cu39      2.630     .         S         
         Cu4       O4        1.951     .         S         
         Cu4       O15       1.951     1_554     S         
         Cu4       O27       1.951     1_554     S         
         Cu4       O40       1.951     .         S         
         Cu5       Cu18      2.630     .         S         
         Cu5       O5        1.951     1_455     S         
         Cu5       O23       1.951     .         S         
         Cu5       O30       1.951     .         S         
         Cu5       O48       1.951     1_455     S         
         Cu6       Cu17      2.630     .         S         
         Cu6       O6        1.951     1_455     S         
         Cu6       O24       1.951     .         S         
         Cu6       O29       1.951     .         S         
         Cu6       O47       1.951     1_455     S         
         Cu7       Cu20      2.630     .         S         
         Cu7       O7        1.951     .         S         
         Cu7       O22       1.951     1_455     S         
         Cu7       O32       1.951     1_455     S         
         Cu7       O45       1.951     .         S         
         Cu8       Cu19      2.630     .         S         
         Cu8       O8        1.951     .         S         
         Cu8       O21       1.951     1_455     S         
         Cu8       O31       1.951     1_455     S         
         Cu8       O46       1.951     .         S         
         Cu9       Cu34      2.630     .         S         
         Cu9       O9        1.951     1_545     S         
         Cu9       O20       1.951     .         S         
         Cu9       O34       1.951     .         S         
         Cu9       O43       1.951     1_545     S         
         Cu10      Cu33      2.630     .         S         
         Cu10      O10       1.951     1_545     S         
         Cu10      O19       1.951     .         S         
         Cu10      O33       1.951     .         S         
         Cu10      O44       1.951     1_545     S         
         Cu11      Cu36      2.630     .         S         
         Cu11      O11       1.951     .         S         
         Cu11      O17       1.951     1_545     S         
         Cu11      O36       1.951     1_545     S         
         Cu11      O42       1.951     .         S         
         Cu12      Cu35      2.630     .         S         
         Cu12      O12       1.951     .         S         
         Cu12      O18       1.951     1_545     S         
         Cu12      O35       1.951     1_545     S         
         Cu12      O41       1.951     .         S         
         Cu13      Cu26      2.630     .         S         
         Cu13      O49       1.951     .         S         
         Cu13      O61       1.951     .         S         
         Cu13      O74       1.951     .         S         
         Cu13      O86       1.951     .         S         
         Cu14      Cu25      2.630     .         S         
         Cu14      O50       1.951     .         S         
         Cu14      O62       1.951     .         S         
         Cu14      O73       1.951     .         S         
         Cu14      O85       1.951     .         S         
         Cu15      Cu28      2.630     .         S         
         Cu15      O51       1.951     .         S         
         Cu15      O64       1.951     .         S         
         Cu15      O76       1.951     .         S         
         Cu15      O87       1.951     .         S         
         Cu16      Cu27      2.630     .         S         
         Cu16      O52       1.951     .         S         
         Cu16      O63       1.951     .         S         
         Cu16      O75       1.951     .         S         
         Cu16      O88       1.951     .         S         
         Cu17      O53       1.951     1_455     S         
         Cu17      O71       1.951     .         S         
         Cu17      O78       1.951     .         S         
         Cu17      O96       1.951     1_455     S         
         Cu18      O54       1.951     1_455     S         
         Cu18      O72       1.951     .         S         
         Cu18      O77       1.951     .         S         
         Cu18      O95       1.951     1_455     S         
         Cu19      O55       1.951     .         S         
         Cu19      O70       1.951     1_455     S         
         Cu19      O80       1.951     1_455     S         
         Cu19      O93       1.951     .         S         
         Cu20      O56       1.951     .         S         
         Cu20      O69       1.951     1_455     S         
         Cu20      O79       1.951     1_455     S         
         Cu20      O94       1.951     .         S         
         Cu21      Cu46      2.630     .         S         
         Cu21      O57       1.951     .         S         
         Cu21      O68       1.951     .         S         
         Cu21      O82       1.951     .         S         
         Cu21      O91       1.951     .         S         
         Cu22      Cu45      2.630     .         S         
         Cu22      O58       1.951     .         S         
         Cu22      O67       1.951     .         S         
         Cu22      O81       1.951     .         S         
         Cu22      O92       1.951     .         S         
         Cu23      Cu48      2.630     .         S         
         Cu23      O59       1.951     .         S         
         Cu23      O65       1.951     .         S         
         Cu23      O84       1.951     .         S         
         Cu23      O90       1.951     .         S         
         Cu24      Cu47      2.630     .         S         
         Cu24      O60       1.951     .         S         
         Cu24      O66       1.951     .         S         
         Cu24      O83       1.951     .         S         
         Cu24      O89       1.951     .         S         
         Cu25      O97       1.951     .         S         
         Cu25      O109      1.951     .         S         
         Cu25      O122      1.951     .         S         
         Cu25      O134      1.951     .         S         
         Cu26      O98       1.951     .         S         
         Cu26      O110      1.951     .         S         
         Cu26      O121      1.951     .         S         
         Cu26      O133      1.951     .         S         
         Cu27      O99       1.951     .         S         
         Cu27      O112      1.951     .         S         
         Cu27      O124      1.951     .         S         
         Cu27      O135      1.951     .         S         
         Cu28      O100      1.951     .         S         
         Cu28      O111      1.951     .         S         
         Cu28      O123      1.951     .         S         
         Cu28      O136      1.951     .         S         
         Cu29      Cu42      2.630     .         S         
         Cu29      O101      1.951     .         S         
         Cu29      O119      1.951     .         S         
         Cu29      O126      1.951     .         S         
         Cu29      O144      1.951     .         S         
         Cu30      Cu41      2.630     .         S         
         Cu30      O102      1.951     .         S         
         Cu30      O120      1.951     .         S         
         Cu30      O125      1.951     .         S         
         Cu30      O143      1.951     .         S         
         Cu31      Cu44      2.630     .         S         
         Cu31      O103      1.951     .         S         
         Cu31      O118      1.951     .         S         
         Cu31      O128      1.951     .         S         
         Cu31      O141      1.951     .         S         
         Cu32      Cu43      2.630     .         S         
         Cu32      O104      1.951     .         S         
         Cu32      O117      1.951     .         S         
         Cu32      O127      1.951     .         S         
         Cu32      O142      1.951     .         S         
         Cu33      O105      1.951     1_545     S         
         Cu33      O116      1.951     .         S         
         Cu33      O130      1.951     .         S         
         Cu33      O139      1.951     1_545     S         
         Cu34      O106      1.951     1_545     S         
         Cu34      O115      1.951     .         S         
         Cu34      O129      1.951     .         S         
         Cu34      O140      1.951     1_545     S         
         Cu35      O107      1.951     .         S         
         Cu35      O113      1.951     1_545     S         
         Cu35      O132      1.951     1_545     S         
         Cu35      O138      1.951     .         S         
         Cu36      O108      1.951     .         S         
         Cu36      O114      1.951     1_545     S         
         Cu36      O131      1.951     1_545     S         
         Cu36      O137      1.951     .         S         
         Cu37      O145      1.951     1_554     S         
         Cu37      O157      1.951     .         S         
         Cu37      O170      1.951     .         S         
         Cu37      O182      1.951     1_554     S         
         Cu38      O146      1.951     1_554     S         
         Cu38      O158      1.951     .         S         
         Cu38      O169      1.951     .         S         
         Cu38      O181      1.951     1_554     S         
         Cu39      O147      1.951     .         S         
         Cu39      O160      1.951     1_554     S         
         Cu39      O172      1.951     1_554     S         
         Cu39      O183      1.951     .         S         
         Cu40      O148      1.951     .         S         
         Cu40      O159      1.951     1_554     S         
         Cu40      O171      1.951     1_554     S         
         Cu40      O184      1.951     .         S         
         Cu41      O149      1.951     .         S         
         Cu41      O167      1.951     .         S         
         Cu41      O174      1.951     .         S         
         Cu41      O192      1.951     .         S         
         Cu42      O150      1.951     .         S         
         Cu42      O168      1.951     .         S         
         Cu42      O173      1.951     .         S         
         Cu42      O191      1.951     .         S         
         Cu43      O151      1.951     .         S         
         Cu43      O166      1.951     .         S         
         Cu43      O176      1.951     .         S         
         Cu43      O189      1.951     .         S         
         Cu44      O152      1.951     .         S         
         Cu44      O165      1.951     .         S         
         Cu44      O175      1.951     .         S         
         Cu44      O190      1.951     .         S         
         Cu45      O153      1.951     .         S         
         Cu45      O164      1.951     .         S         
         Cu45      O178      1.951     .         S         
         Cu45      O187      1.951     .         S         
         Cu46      O154      1.951     .         S         
         Cu46      O163      1.951     .         S         
         Cu46      O177      1.951     .         S         
         Cu46      O188      1.951     .         S         
         Cu47      O155      1.951     .         S         
         Cu47      O161      1.951     .         S         
         Cu47      O180      1.951     .         S         
         Cu47      O186      1.951     .         S         
         Cu48      O156      1.951     .         S         
         Cu48      O162      1.951     .         S         
         Cu48      O179      1.951     .         S         
         Cu48      O185      1.951     .         S         
         H1        C193      0.931     .         S         
         H2        C194      0.931     .         S         
         H3        C195      0.931     .         S         
         H4        C196      0.931     .         S         
         H5        C197      0.931     .         S         
         H6        C198      0.931     .         S         
         H7        C199      0.931     .         S         
         H8        C200      0.931     .         S         
         H9        C201      0.931     .         S         
         H10       C202      0.931     .         S         
         H11       C203      0.931     .         S         
         H12       C204      0.931     .         S         
         H13       C205      0.931     .         S         
         H14       C206      0.931     .         S         
         H15       C207      0.931     .         S         
         H16       C208      0.931     .         S         
         H17       C209      0.931     .         S         
         H18       C210      0.931     .         S         
         H19       C211      0.931     .         S         
         H20       C212      0.931     .         S         
         H21       C213      0.931     .         S         
         H22       C214      0.931     .         S         
         H23       C215      0.931     .         S         
         H24       C216      0.931     .         S         
         H25       C217      0.931     .         S         
         H26       C218      0.931     .         S         
         H27       C219      0.931     .         S         
         H28       C220      0.931     .         S         
         H29       C221      0.931     .         S         
         H30       C222      0.931     .         S         
         H31       C223      0.931     .         S         
         H32       C224      0.931     .         S         
         H33       C225      0.931     .         S         
         H34       C226      0.931     .         S         
         H35       C227      0.931     .         S         
         H36       C228      0.931     .         S         
         H37       C229      0.931     .         S         
         H38       C230      0.931     .         S         
         H39       C231      0.931     .         S         
         H40       C232      0.931     .         S         
         H41       C233      0.931     .         S         
         H42       C234      0.931     .         S         
         H43       C235      0.931     .         S         
         H44       C236      0.931     .         S         
         H45       C237      0.931     .         S         
         H46       C238      0.931     .         S         
         H47       C239      0.931     .         S         
         H48       C240      0.931     .         S         
         H49       C241      0.931     .         S         
         H50       C242      0.931     .         S         
         H51       C243      0.931     .         S         
         H52       C244      0.931     .         S         
         H53       C245      0.931     .         S         
         H54       C246      0.931     .         S         
         H55       C247      0.931     .         S         
         H56       C248      0.931     .         S         
         H57       C249      0.931     .         S         
         H58       C250      0.931     .         S         
         H59       C251      0.931     .         S         
         H60       C252      0.931     .         S         
         H61       C253      0.931     .         S         
         H62       C254      0.931     .         S         
         H63       C255      0.931     .         S         
         H64       C256      0.931     .         S         
         H65       C257      0.931     .         S         
         H66       C258      0.931     .         S         
         H67       C259      0.931     .         S         
         H68       C260      0.931     .         S         
         H69       C261      0.931     .         S         
         H70       C262      0.931     .         S         
         H71       C263      0.931     .         S         
         H72       C264      0.931     .         S         
         H73       C265      0.931     .         S         
         H74       C266      0.931     .         S         
         H75       C267      0.931     .         S         
         H76       C268      0.931     .         S         
         H77       C269      0.931     .         S         
         H78       C270      0.931     .         S         
         H79       C271      0.931     .         S         
         H80       C272      0.931     .         S         
         H81       C273      0.931     .         S         
         H82       C274      0.931     .         S         
         H83       C275      0.931     .         S         
         H84       C276      0.931     .         S         
         H85       C277      0.931     .         S         
         H86       C278      0.931     .         S         
         H87       C279      0.931     .         S         
         H88       C280      0.931     .         S         
         H89       C281      0.931     .         S         
         H90       C282      0.931     .         S         
         H91       C283      0.931     .         S         
         H92       C284      0.931     .         S         
         H93       C285      0.931     .         S         
         H94       C286      0.931     .         S         
         H95       C287      0.931     .         S         
         H96       C288      0.931     .         S         
         C1        C97       1.498     .         S         
         C1        O1        1.251     .         S         
         C1        O181      1.251     .         D         
         C2        C98       1.498     .         S         
         C2        O2        1.251     .         S         
         C2        O182      1.251     .         D         
         C3        C99       1.498     .         S         
         C3        O3        1.251     .         S         
         C3        O184      1.251     .         D         
         C4        C100      1.498     .         S         
         C4        O4        1.251     .         S         
         C4        O183      1.251     .         D         
         C5        C101      1.498     .         S         
         C5        O5        1.251     .         D         
         C5        O95       1.251     .         S         
         C6        C102      1.498     .         S         
         C6        O6        1.251     .         D         
         C6        O96       1.251     .         S         
         C7        C103      1.498     .         S         
         C7        O7        1.251     .         D         
         C7        O94       1.251     .         S         
         C8        C104      1.498     .         S         
         C8        O8        1.251     .         D         
         C8        O93       1.251     .         S         
         C9        C105      1.498     .         S         
         C9        O9        1.251     .         S         
         C9        O140      1.251     .         D         
         C10       C106      1.498     .         S         
         C10       O10       1.251     .         S         
         C10       O139      1.251     .         D         
         C11       C107      1.498     .         S         
         C11       O11       1.251     .         S         
         C11       O137      1.251     .         D         
         C12       C108      1.498     .         S         
         C12       O12       1.251     .         S         
         C12       O138      1.251     .         D         
         C13       C109      1.498     .         S         
         C13       O13       1.251     .         S         
         C13       O169      1.251     .         D         
         C14       C110      1.498     .         S         
         C14       O14       1.251     .         S         
         C14       O170      1.251     .         D         
         C15       C111      1.498     .         S         
         C15       O15       1.251     .         S         
         C15       O172      1.251     .         D         
         C16       C112      1.498     .         S         
         C16       O16       1.251     .         S         
         C16       O171      1.251     .         D         
         C17       C113      1.498     .         S         
         C17       O17       1.251     .         D         
         C17       O131      1.251     .         S         
         C18       C114      1.498     .         S         
         C18       O18       1.251     .         D         
         C18       O132      1.251     .         S         
         C19       C115      1.498     .         S         
         C19       O19       1.251     .         D         
         C19       O130      1.251     .         S         
         C20       C116      1.498     .         S         
         C20       O20       1.251     .         D         
         C20       O129      1.251     .         S         
         C21       C117      1.498     .         S         
         C21       O21       1.251     .         D         
         C21       O80       1.251     .         S         
         C22       C118      1.498     .         S         
         C22       O22       1.251     .         D         
         C22       O79       1.251     .         S         
         C23       C119      1.498     .         S         
         C23       O23       1.251     .         D         
         C23       O77       1.251     .         S         
         C24       C120      1.498     .         S         
         C24       O24       1.251     .         D         
         C24       O78       1.251     .         S         
         C25       C121      1.498     .         S         
         C25       O25       1.251     .         D         
         C25       O157      1.251     .         S         
         C26       C122      1.498     .         S         
         C26       O26       1.251     .         D         
         C26       O158      1.251     .         S         
         C27       C123      1.498     .         S         
         C27       O27       1.251     .         D         
         C27       O160      1.251     .         S         
         C28       C124      1.498     .         S         
         C28       O28       1.251     .         D         
         C28       O159      1.251     .         S         
         C29       C125      1.498     .         S         
         C29       O29       1.251     .         D         
         C29       O71       1.251     .         S         
         C30       C126      1.498     .         S         
         C30       O30       1.251     .         D         
         C30       O72       1.251     .         S         
         C31       C127      1.498     .         S         
         C31       O31       1.251     .         D         
         C31       O70       1.251     .         S         
         C32       C128      1.498     .         S         
         C32       O32       1.251     .         D         
         C32       O69       1.251     .         S         
         C33       C129      1.498     .         S         
         C33       O33       1.251     .         D         
         C33       O116      1.251     .         S         
         C34       C130      1.498     .         S         
         C34       O34       1.251     .         D         
         C34       O115      1.251     .         S         
         C35       C131      1.498     .         S         
         C35       O35       1.251     .         D         
         C35       O113      1.251     .         S         
         C36       C132      1.498     .         S         
         C36       O36       1.251     .         D         
         C36       O114      1.251     .         S         
         C37       C133      1.498     .         S         
         C37       O37       1.251     .         D         
         C37       O145      1.251     .         S         
         C38       C134      1.498     .         S         
         C38       O38       1.251     .         D         
         C38       O146      1.251     .         S         
         C39       C135      1.498     .         S         
         C39       O39       1.251     .         D         
         C39       O148      1.251     .         S         
         C40       C136      1.498     .         S         
         C40       O40       1.251     .         D         
         C40       O147      1.251     .         S         
         C41       C137      1.498     .         S         
         C41       O41       1.251     .         D         
         C41       O107      1.251     .         S         
         C42       C138      1.498     .         S         
         C42       O42       1.251     .         D         
         C42       O108      1.251     .         S         
         C43       C139      1.498     .         S         
         C43       O43       1.251     .         D         
         C43       O106      1.251     .         S         
         C44       C140      1.498     .         S         
         C44       O44       1.251     .         D         
         C44       O105      1.251     .         S         
         C45       C141      1.498     .         S         
         C45       O45       1.251     .         D         
         C45       O56       1.251     .         S         
         C46       C142      1.498     .         S         
         C46       O46       1.251     .         D         
         C46       O55       1.251     .         S         
         C47       C143      1.498     .         S         
         C47       O47       1.251     .         D         
         C47       O53       1.251     .         S         
         C48       C144      1.498     .         S         
         C48       O48       1.251     .         D         
         C48       O54       1.251     .         S         
         C49       C145      1.498     .         S         
         C49       O49       1.251     .         D         
         C49       O133      1.251     .         S         
         C50       C146      1.498     .         S         
         C50       O50       1.251     .         D         
         C50       O134      1.251     .         S         
         C51       C147      1.498     .         S         
         C51       O51       1.251     .         D         
         C51       O136      1.251     .         S         
         C52       C148      1.498     .         S         
         C52       O52       1.251     .         D         
         C52       O135      1.251     .         S         
         C53       C149      1.498     .         S         
         C53       O57       1.251     .         S         
         C53       O188      1.251     .         D         
         C54       C150      1.498     .         S         
         C54       O58       1.251     .         S         
         C54       O187      1.251     .         D         
         C55       C151      1.498     .         S         
         C55       O59       1.251     .         S         
         C55       O185      1.251     .         D         
         C56       C152      1.498     .         S         
         C56       O60       1.251     .         S         
         C56       O186      1.251     .         D         
         C57       C153      1.498     .         S         
         C57       O61       1.251     .         S         
         C57       O121      1.251     .         D         
         C58       C154      1.498     .         S         
         C58       O62       1.251     .         S         
         C58       O122      1.251     .         D         
         C59       C155      1.498     .         S         
         C59       O63       1.251     .         S         
         C59       O124      1.251     .         D         
         C60       C156      1.498     .         S         
         C60       O64       1.251     .         S         
         C60       O123      1.251     .         D         
         C61       C157      1.498     .         S         
         C61       O65       1.251     .         S         
         C61       O179      1.251     .         D         
         C62       C158      1.498     .         S         
         C62       O66       1.251     .         S         
         C62       O180      1.251     .         D         
         C63       C159      1.498     .         S         
         C63       O67       1.251     .         S         
         C63       O178      1.251     .         D         
         C64       C160      1.498     .         S         
         C64       O68       1.251     .         S         
         C64       O177      1.251     .         D         
         C65       C161      1.498     .         S         
         C65       O73       1.251     .         D         
         C65       O109      1.251     .         S         
         C66       C162      1.498     .         S         
         C66       O74       1.251     .         D         
         C66       O110      1.251     .         S         
         C67       C163      1.498     .         S         
         C67       O75       1.251     .         D         
         C67       O112      1.251     .         S         
         C68       C164      1.498     .         S         
         C68       O76       1.251     .         D         
         C68       O111      1.251     .         S         
         C69       C165      1.498     .         S         
         C69       O81       1.251     .         D         
         C69       O164      1.251     .         S         
         C70       C166      1.498     .         S         
         C70       O82       1.251     .         D         
         C70       O163      1.251     .         S         
         C71       C167      1.498     .         S         
         C71       O83       1.251     .         D         
         C71       O161      1.251     .         S         
         C72       C168      1.498     .         S         
         C72       O84       1.251     .         D         
         C72       O162      1.251     .         S         
         C73       C169      1.498     .         S         
         C73       O85       1.251     .         D         
         C73       O97       1.251     .         S         
         C74       C170      1.498     .         S         
         C74       O86       1.251     .         D         
         C74       O98       1.251     .         S         
         C75       C171      1.498     .         S         
         C75       O87       1.251     .         D         
         C75       O100      1.251     .         S         
         C76       C172      1.498     .         S         
         C76       O88       1.251     .         D         
         C76       O99       1.251     .         S         
         C77       C173      1.498     .         S         
         C77       O89       1.251     .         D         
         C77       O155      1.251     .         S         
         C78       C174      1.498     .         S         
         C78       O90       1.251     .         D         
         C78       O156      1.251     .         S         
         C79       C175      1.498     .         S         
         C79       O91       1.251     .         D         
         C79       O154      1.251     .         S         
         C80       C176      1.498     .         S         
         C80       O92       1.251     .         D         
         C80       O153      1.251     .         S         
         C81       C177      1.498     .         S         
         C81       O101      1.251     .         S         
         C81       O191      1.251     .         D         
         C82       C178      1.498     .         S         
         C82       O102      1.251     .         S         
         C82       O192      1.251     .         D         
         C83       C179      1.498     .         S         
         C83       O103      1.251     .         S         
         C83       O190      1.251     .         D         
         C84       C180      1.498     .         S         
         C84       O104      1.251     .         S         
         C84       O189      1.251     .         D         
         C85       C181      1.498     .         S         
         C85       O117      1.251     .         S         
         C85       O176      1.251     .         D         
         C86       C182      1.498     .         S         
         C86       O118      1.251     .         S         
         C86       O175      1.251     .         D         
         C87       C183      1.498     .         S         
         C87       O119      1.251     .         S         
         C87       O173      1.251     .         D         
         C88       C184      1.498     .         S         
         C88       O120      1.251     .         S         
         C88       O174      1.251     .         D         
         C89       C185      1.498     .         S         
         C89       O125      1.251     .         D         
         C89       O167      1.251     .         S         
         C90       C186      1.498     .         S         
         C90       O126      1.251     .         D         
         C90       O168      1.251     .         S         
         C91       C187      1.498     .         S         
         C91       O127      1.251     .         D         
         C91       O166      1.251     .         S         
         C92       C188      1.498     .         S         
         C92       O128      1.251     .         D         
         C92       O165      1.251     .         S         
         C93       C189      1.498     .         S         
         C93       O141      1.251     .         D         
         C93       O152      1.251     .         S         
         C94       C190      1.498     .         S         
         C94       O142      1.251     .         D         
         C94       O151      1.251     .         S         
         C95       C191      1.498     .         S         
         C95       O143      1.251     .         D         
         C95       O149      1.251     .         S         
         C96       C192      1.498     .         S         
         C96       O144      1.251     .         D         
         C96       O150      1.251     .         S         
         C97       C193      1.397     .         D         
         C97       C276      1.397     .         S         
         C98       C194      1.397     .         D         
         C98       C273      1.397     .         S         
         C99       C195      1.397     .         D         
         C99       C275      1.397     .         S         
         C100      C196      1.397     .         D         
         C100      C274      1.397     .         S         
         C101      C197      1.397     .         D         
         C101      C271      1.397     .         S         
         C102      C198      1.397     .         S         
         C102      C272      1.397     .         D         
         C103      C199      1.397     .         D         
         C103      C270      1.397     .         S         
         C104      C200      1.397     .         S         
         C104      C269      1.397     .         D         
         C105      C201      1.397     .         D         
         C105      C248      1.397     .         S         
         C106      C202      1.397     .         D         
         C106      C245      1.397     .         S         
         C107      C203      1.397     .         D         
         C107      C247      1.397     .         S         
         C108      C204      1.397     .         D         
         C108      C246      1.397     .         S         
         C109      C205      1.397     .         D         
         C109      C256      1.397     .         S         
         C110      C206      1.397     .         D         
         C110      C253      1.397     .         S         
         C111      C207      1.397     .         D         
         C111      C255      1.397     .         S         
         C112      C208      1.397     .         D         
         C112      C254      1.397     .         S         
         C113      C209      1.397     .         S         
         C113      C283      1.397     .         D         
         C114      C210      1.397     .         D         
         C114      C284      1.397     .         S         
         C115      C211      1.397     .         S         
         C115      C282      1.397     .         D         
         C116      C212      1.397     .         D         
         C116      C281      1.397     .         S         
         C117      C213      1.397     .         D         
         C117      C264      1.397     .         S         
         C118      C214      1.397     .         S         
         C118      C263      1.397     .         D         
         C119      C215      1.397     .         D         
         C119      C261      1.397     .         S         
         C120      C216      1.397     .         S         
         C120      C262      1.397     .         D         
         C121      C217      1.397     .         S         
         C121      C284      1.397     .         D         
         C122      C218      1.397     .         S         
         C122      C281      1.397     .         D         
         C123      C219      1.397     .         D         
         C123      C283      1.397     .         S         
         C124      C220      1.397     .         D         
         C124      C282      1.397     .         S         
         C125      C221      1.397     .         S         
         C125      C255      1.397     .         D         
         C126      C222      1.397     .         S         
         C126      C256      1.397     .         D         
         C127      C223      1.397     .         S         
         C127      C254      1.397     .         D         
         C128      C224      1.397     .         S         
         C128      C253      1.397     .         D         
         C129      C225      1.397     .         S         
         C129      C264      1.397     .         D         
         C130      C226      1.397     .         S         
         C130      C261      1.397     .         D         
         C131      C227      1.397     .         D         
         C131      C263      1.397     .         S         
         C132      C228      1.397     .         D         
         C132      C262      1.397     .         S         
         C133      C229      1.397     .         D         
         C133      C272      1.397     .         S         
         C134      C230      1.397     .         D         
         C134      C269      1.397     .         S         
         C135      C231      1.397     .         S         
         C135      C271      1.397     .         D         
         C136      C232      1.397     .         S         
         C136      C270      1.397     .         D         
         C137      C233      1.397     .         S         
         C137      C275      1.397     .         D         
         C138      C234      1.397     .         S         
         C138      C276      1.397     .         D         
         C139      C235      1.397     .         S         
         C139      C274      1.397     .         D         
         C140      C236      1.397     .         S         
         C140      C273      1.397     .         D         
         C141      C237      1.397     .         S         
         C141      C248      1.397     .         D         
         C142      C238      1.397     .         S         
         C142      C247      1.397     .         D         
         C143      C239      1.397     .         S         
         C143      C245      1.397     .         D         
         C144      C240      1.397     .         S         
         C144      C246      1.397     .         D         
         C145      C241      1.397     .         D         
         C145      C285      1.397     .         S         
         C146      C242      1.397     .         D         
         C146      C286      1.397     .         S         
         C147      C243      1.397     .         S         
         C147      C288      1.397     .         D         
         C148      C244      1.397     .         S         
         C148      C287      1.397     .         D         
         C149      C200      1.397     .         D         
         C149      C230      1.397     .         S         
         C150      C197      1.397     .         S         
         C150      C231      1.397     .         D         
         C151      C199      1.397     .         S         
         C151      C232      1.397     .         D         
         C152      C198      1.397     .         D         
         C152      C229      1.397     .         S         
         C153      C216      1.397     .         D         
         C153      C228      1.397     .         S         
         C154      C213      1.397     .         S         
         C154      C225      1.397     .         D         
         C155      C215      1.397     .         S         
         C155      C226      1.397     .         D         
         C156      C214      1.397     .         D         
         C156      C227      1.397     .         S         
         C157      C249      1.397     .         D         
         C157      C280      1.397     .         S         
         C158      C250      1.397     .         S         
         C158      C277      1.397     .         D         
         C159      C251      1.397     .         D         
         C159      C279      1.397     .         S         
         C160      C252      1.397     .         S         
         C160      C278      1.397     .         D         
         C161      C257      1.397     .         D         
         C161      C277      1.397     .         S         
         C162      C258      1.397     .         D         
         C162      C278      1.397     .         S         
         C163      C259      1.397     .         S         
         C163      C280      1.397     .         D         
         C164      C260      1.397     .         S         
         C164      C279      1.397     .         D         
         C165      C206      1.397     .         S         
         C165      C224      1.397     .         D         
         C166      C207      1.397     .         S         
         C166      C221      1.397     .         D         
         C167      C208      1.397     .         S         
         C167      C223      1.397     .         D         
         C168      C205      1.397     .         S         
         C168      C222      1.397     .         D         
         C169      C204      1.397     .         S         
         C169      C240      1.397     .         D         
         C170      C201      1.397     .         S         
         C170      C237      1.397     .         D         
         C171      C202      1.397     .         S         
         C171      C239      1.397     .         D         
         C172      C203      1.397     .         S         
         C172      C238      1.397     .         D         
         C173      C265      1.397     .         D         
         C173      C288      1.397     .         S         
         C174      C266      1.397     .         S         
         C174      C285      1.397     .         D         
         C175      C267      1.397     .         D         
         C175      C287      1.397     .         S         
         C176      C268      1.397     .         S         
         C176      C286      1.397     .         D         
         C177      C244      1.397     .         D         
         C177      C267      1.397     .         S         
         C178      C241      1.397     .         S         
         C178      C266      1.397     .         D         
         C179      C243      1.397     .         D         
         C179      C265      1.397     .         S         
         C180      C242      1.397     .         S         
         C180      C268      1.397     .         D         
         C181      C212      1.397     .         S         
         C181      C218      1.397     .         D         
         C182      C209      1.397     .         D         
         C182      C219      1.397     .         S         
         C183      C211      1.397     .         D         
         C183      C220      1.397     .         S         
         C184      C210      1.397     .         S         
         C184      C217      1.397     .         D         
         C185      C251      1.397     .         S         
         C185      C260      1.397     .         D         
         C186      C250      1.397     .         D         
         C186      C257      1.397     .         S         
         C187      C249      1.397     .         S         
         C187      C259      1.397     .         D         
         C188      C252      1.397     .         D         
         C188      C258      1.397     .         S         
         C189      C194      1.397     .         S         
         C189      C236      1.397     .         D         
         C190      C195      1.397     .         S         
         C190      C233      1.397     .         D         
         C191      C196      1.397     .         S         
         C191      C235      1.397     .         D         
         C192      C193      1.397     .         S         
         C192      C234      1.397     .         D         
         O1        Cu1       1.951     1_556     S         
         O2        Cu2       1.951     1_556     S         
         O5        Cu5       1.951     1_655     S         
         O6        Cu6       1.951     1_655     S         
         O9        Cu9       1.951     1_565     S         
         O10       Cu10      1.951     1_565     S         
         O15       Cu4       1.951     1_556     S         
         O16       Cu3       1.951     1_556     S         
         O17       Cu11      1.951     1_565     S         
         O18       Cu12      1.951     1_565     S         
         O21       Cu8       1.951     1_655     S         
         O22       Cu7       1.951     1_655     S         
         O27       Cu4       1.951     1_556     S         
         O28       Cu3       1.951     1_556     S         
         O31       Cu8       1.951     1_655     S         
         O32       Cu7       1.951     1_655     S         
         O35       Cu12      1.951     1_565     S         
         O36       Cu11      1.951     1_565     S         
         O37       Cu2       1.951     1_556     S         
         O38       Cu1       1.951     1_556     S         
         O43       Cu9       1.951     1_565     S         
         O44       Cu10      1.951     1_565     S         
         O47       Cu6       1.951     1_655     S         
         O48       Cu5       1.951     1_655     S         
         O53       Cu17      1.951     1_655     S         
         O54       Cu18      1.951     1_655     S         
         O69       Cu20      1.951     1_655     S         
         O70       Cu19      1.951     1_655     S         
         O79       Cu20      1.951     1_655     S         
         O80       Cu19      1.951     1_655     S         
         O95       Cu18      1.951     1_655     S         
         O96       Cu17      1.951     1_655     S         
         O105      Cu33      1.951     1_565     S         
         O106      Cu34      1.951     1_565     S         
         O113      Cu35      1.951     1_565     S         
         O114      Cu36      1.951     1_565     S         
         O131      Cu36      1.951     1_565     S         
         O132      Cu35      1.951     1_565     S         
         O139      Cu33      1.951     1_565     S         
         O140      Cu34      1.951     1_565     S         
         O145      Cu37      1.951     1_556     S         
         O146      Cu38      1.951     1_556     S         
         O159      Cu40      1.951     1_556     S         
         O160      Cu39      1.951     1_556     S         
         O171      Cu40      1.951     1_556     S         
         O172      Cu39      1.951     1_556     S         
         O181      Cu38      1.951     1_556     S         
         O182      Cu37      1.951     1_556     S 